<?xml version="1.0" encoding="UTF-8"?>

<!-- generated on 2025-04-24 23:47:38 by Eclipse SUMO netedit Version 1.22.0
-->

<routes xmlns:xsi="http://www.w3.org/2001/XMLSchema-instance" xsi:noNamespaceSchemaLocation="http://sumo.dlr.de/xsd/routes_file.xsd">
    <!-- VTypes -->
    <!-- High Saturation Flow Vehicle (3960 veh/hr = 5.5 veh/5sec) -->
    <vType id="han-high" accel="10.0" decel="10.0" length="5.0" minGap="0.1" tau="0.1" maxSpeed="50"/>

    <!-- Low Saturation Flow Vehicle (3240 veh/hr = 4.5 veh/5sec) -->
    <vType id="han-low" accel="6.0" decel="6.0" length="5.0" minGap="0.3" tau="0.3" maxSpeed="30"/>

    <!-- Vehicles, persons and containers (sorted by depart) -->
    <flow id="f_0" type="han-high" begin="0.00" from="Node3_2_SB" to="E3" end="1200.00" vehsPerHour="1440"/>
    <flow id="f_1" type="han-high" begin="0.00" from="Node1_2_EB" to="E1" end="1200.00" vehsPerHour="1440"/>
</routes>
