<?xml version="1.0" encoding="UTF-8"?>

<!-- generated on 2025-04-24 23:55:29 by Eclipse SUMO sumo Version 1.22.0
-->

<sumoConfiguration xmlns:xsi="http://www.w3.org/2001/XMLSchema-instance" xsi:noNamespaceSchemaLocation="http://sumo.dlr.de/xsd/sumoConfiguration.xsd">

    <input>
        <net-file value="hh.net.xml"/>
        <route-files value="hh.rou.xml"/>
        <additional-files value="hh.add.xml"/>
    </input>

</sumoConfiguration>
