<?xml version="1.0" encoding="UTF-8"?>

<!-- generated on 2025-05-21 01:23:45 by Eclipse SUMO netedit Version 1.22.0
-->

<routes xmlns:xsi="http://www.w3.org/2001/XMLSchema-instance" xsi:noNamespaceSchemaLocation="http://sumo.dlr.de/xsd/routes_file.xsd">
    <!-- Vehicles, persons and containers (sorted by depart) -->
    <flow id="f_0" begin="0.00" from="Node3_2_SB" to="Node2_5_SB" end="6100.00" period="exp(0.1901140684)"/>
    <flow id="f_1" begin="0.00" from="Node1_2_EB" to="Node2_4_EB" end="6100.00" period="exp(0.1901140684)"/>
</routes>
