<?xml version="1.0" encoding="UTF-8"?>

<!-- generated on 2025-04-26 16:43:19 by Eclipse SUMO netedit Version 1.22.0
-->

<routes xmlns:xsi="http://www.w3.org/2001/XMLSchema-instance" xsi:noNamespaceSchemaLocation="http://sumo.dlr.de/xsd/routes_file.xsd">
    <!-- VTypes -->
    <vType id="han-high" tau="1.429"/>
    <vType id="han-low" tau="2.000"/>
    <!-- Vehicles, persons and containers (sorted by depart) -->
    <flow id="f_0" type="han-low" begin="0.00" from="Node3_2_SB" to="E3" end="1200.00" vehsPerHour="720"/>
    <flow id="f_1" type="han-high" begin="0.00" from="Node1_2_EB" to="E1" end="1200.00" vehsPerHour="1440"/>
</routes>
