<?xml version="1.0" encoding="UTF-8"?>

<!-- generated on 2025-05-08 18:01:16 by Eclipse SUMO netedit Version 1.22.0
-->

<routes xmlns:xsi="http://www.w3.org/2001/XMLSchema-instance" xsi:noNamespaceSchemaLocation="http://sumo.dlr.de/xsd/routes_file.xsd">
    <!-- Vehicles, persons and containers (sorted by depart) -->
    <flow id="f_0" begin="0.00" from="Node3_2_SB" to="Node2_5_SB" end="1800.00" vehsPerHour="500"/>
    <flow id="f_1" begin="0.00" from="Node1_2_EB" to="Node2_4_EB" end="1800.00" vehsPerHour="500"/>
</routes>
