<?xml version="1.0" encoding="UTF-8"?>

<!-- generated on 2025-05-09 00:10:13 by Eclipse SUMO netedit Version 1.22.0
-->

<additional xmlns:xsi="http://www.w3.org/2001/XMLSchema-instance" xsi:noNamespaceSchemaLocation="http://sumo.dlr.de/xsd/additional_file.xsd">
    <!-- Detectors -->
    <laneAreaDetector id="Node1_2_EB_0" lane="Node1_2_EB_0" pos="50.00" length="10.00" period="300.00" file="e2_0.xml"/>
    <laneAreaDetector id="Node2_4_EB_0" lane="Node2_4_EB_0" pos="0.00" length="10.00" period="300.00" file="e2_0.xml"/>
    <laneAreaDetector id="Node2_5_SB_0" lane="Node2_5_SB_0" pos="0.00" length="10.00" period="300.00" file="e2_0.xml"/>
    <laneAreaDetector id="Node3_2_SB_0" lane="Node3_2_SB_0" pos="50.00" length="10.00" period="300.00" file="e2_0.xml"/>
</additional>
