<?xml version="1.0" encoding="UTF-8"?>

<!-- generated on 2025-05-09 16:30:43 by Eclipse SUMO netedit Version 1.22.0
<neteditConfiguration xmlns:xsi="http://www.w3.org/2001/XMLSchema-instance" xsi:noNamespaceSchemaLocation="http://sumo.dlr.de/xsd/neteditConfiguration.xsd">

    <input>
        <sumocfg-file value="C:\Users\khrti\OneDrive\ドキュメント\Project\Sumo\SimpleFlow\sumo\hh\main.sumocfg"/>
        <additional-files value="C:\Users\khrti\OneDrive\ドキュメント\Project\Sumo\SimpleFlow\sumo\hh\main.add.xml"/>
        <route-files value="C:\Users\khrti\OneDrive\ドキュメント\Project\Sumo\SimpleFlow\sumo\hh\main.rou.xml"/>
        <sumo-net-file value="C:\Users\khrti\OneDrive\ドキュメント\Project\Sumo\SimpleFlow\sumo\hh\main.net.xml"/>
    </input>

    <output>
        <output-file value="C:\Users\khrti\OneDrive\ドキュメント\Project\Sumo\SimpleFlow\sumo\hh\main.net.xml"/>
    </output>

    <processing>
        <geometry.min-radius.fix.railways value="false"/>
        <geometry.max-grade.fix value="false"/>
        <offset.disable-normalization value="true"/>
        <lefthand value="0"/>
    </processing>

    <junctions>
        <no-turnarounds value="true"/>
        <junctions.corner-detail value="5"/>
        <junctions.limit-turn-speed value="5.50"/>
        <rectangular-lane-cut value="0"/>
    </junctions>

    <pedestrian>
        <walkingareas value="0"/>
    </pedestrian>

</neteditConfiguration>
-->

<net version="1.20" junctionCornerDetail="5" limitTurnSpeed="5.50" xmlns:xsi="http://www.w3.org/2001/XMLSchema-instance" xsi:noNamespaceSchemaLocation="http://sumo.dlr.de/xsd/net_file.xsd">

    <location netOffset="0.00,0.00" convBoundary="-83.74,-120.25,237.67,175.76" origBoundary="-10000000000.00,-10000000000.00,10000000000.00,10000000000.00" projParameter="!"/>

    <edge id=":Node2_0" function="internal">
        <lane id=":Node2_0_0" index="0" speed="6.51" length="9.03" shape="92.78,-10.36 95.23,-10.71 96.98,-11.76 98.03,-13.51 98.37,-15.96"/>
    </edge>
    <edge id=":Node2_1" function="internal">
        <lane id=":Node2_1_0" index="0" speed="13.89" length="11.20" shape="92.78,-10.36 103.98,-10.36"/>
    </edge>
    <edge id=":Node2_2" function="internal">
        <lane id=":Node2_2_0" index="0" speed="13.89" length="11.20" shape="98.38,-4.76 98.37,-15.96"/>
    </edge>
    <edge id=":Node2_3" function="internal">
        <lane id=":Node2_3_0" index="0" speed="6.51" length="9.03" shape="98.38,-4.76 98.73,-7.21 99.78,-8.96 101.53,-10.01 103.98,-10.36"/>
    </edge>

    <edge id="Node1_2_EB" from="Node1" to="Node2" priority="-1" length="650.00">
        <lane id="Node1_2_EB_0" index="0" speed="13.89" length="650.00" shape="-83.74,-10.36 92.78,-10.36"/>
    </edge>
    <edge id="Node2_4_EB" from="Node2" to="Node4" priority="-1" length="150.00">
        <lane id="Node2_4_EB_0" index="0" speed="13.89" length="150.00" shape="103.98,-10.36 237.67,-10.36"/>
    </edge>
    <edge id="Node2_5_SB" from="Node2" to="Node5" priority="-1" length="140.00">
        <lane id="Node2_5_SB_0" index="0" speed="13.89" length="140.00" shape="98.37,-15.96 98.30,-120.25"/>
    </edge>
    <edge id="Node3_2_SB" from="Node3" to="Node2" priority="-1" length="650.00">
        <lane id="Node3_2_SB_0" index="0" speed="13.89" length="650.00" shape="98.33,175.76 98.38,-4.76"/>
    </edge>

    <tlLogic id="Node2" type="static" programID="0" offset="0">
        <phase duration="23" state="GGrr"/>
        <phase duration="5"  state="yyrr"/>
        <phase duration="23" state="rrGG"/>
        <phase duration="5"  state="rryy"/>
    </tlLogic>

    <junction id="Node1" type="dead_end" x="-83.74" y="-8.76" incLanes="" intLanes="" shape="-83.74,-8.76 -83.74,-11.96"/>
    <junction id="Node2" type="traffic_light" x="99.98" y="-8.76" incLanes="Node1_2_EB_0 Node3_2_SB_0" intLanes=":Node2_0_0 :Node2_1_0 :Node2_2_0 :Node2_3_0" shape="103.98,-8.76 103.98,-11.96 101.76,-12.40 100.98,-12.96 100.42,-13.74 100.09,-14.74 99.97,-15.96 96.77,-15.96 96.33,-13.74 95.78,-12.96 95.00,-12.40 94.00,-12.07 92.78,-11.96 92.78,-8.76 95.00,-8.32 95.78,-7.76 96.33,-6.98 96.67,-5.98 96.78,-4.76 99.98,-4.76 100.42,-6.98 100.98,-7.76 101.76,-8.32 102.76,-8.65">
        <request index="0" response="0000" foes="0100" cont="0"/>
        <request index="1" response="0000" foes="1100" cont="0"/>
        <request index="2" response="0011" foes="0011" cont="0"/>
        <request index="3" response="0010" foes="0010" cont="0"/>
    </junction>
    <junction id="Node3" type="dead_end" x="99.93" y="175.76" incLanes="" intLanes="" shape="99.93,175.76 96.73,175.76"/>
    <junction id="Node4" type="dead_end" x="237.67" y="-8.76" incLanes="Node2_4_EB_0" intLanes="" shape="237.67,-11.96 237.67,-8.76"/>
    <junction id="Node5" type="dead_end" x="99.90" y="-120.25" incLanes="Node2_5_SB_0" intLanes="" shape="96.70,-120.25 99.90,-120.25"/>

    <connection from="Node1_2_EB" to="Node2_5_SB" fromLane="0" toLane="0" via=":Node2_0_0" tl="Node2" linkIndex="0" dir="r" state="O"/>
    <connection from="Node1_2_EB" to="Node2_4_EB" fromLane="0" toLane="0" via=":Node2_1_0" tl="Node2" linkIndex="1" dir="s" state="O"/>
    <connection from="Node3_2_SB" to="Node2_5_SB" fromLane="0" toLane="0" via=":Node2_2_0" tl="Node2" linkIndex="2" dir="s" state="o"/>
    <connection from="Node3_2_SB" to="Node2_4_EB" fromLane="0" toLane="0" via=":Node2_3_0" tl="Node2" linkIndex="3" dir="l" state="o"/>

    <connection from=":Node2_0" to="Node2_5_SB" fromLane="0" toLane="0" dir="r" state="M"/>
    <connection from=":Node2_1" to="Node2_4_EB" fromLane="0" toLane="0" dir="s" state="M"/>
    <connection from=":Node2_2" to="Node2_5_SB" fromLane="0" toLane="0" dir="s" state="M"/>
    <connection from=":Node2_3" to="Node2_4_EB" fromLane="0" toLane="0" dir="l" state="M"/>

</net>
